Version 4
SHEET 1 2036 680
WIRE 16 112 -416 112
WIRE 224 112 96 112
WIRE 400 112 224 112
WIRE 608 112 480 112
WIRE 688 112 608 112
WIRE 896 112 768 112
WIRE 1072 112 896 112
WIRE 1280 112 1152 112
WIRE 1440 112 1280 112
WIRE 1456 112 1440 112
WIRE -416 128 -416 112
WIRE 224 144 224 112
WIRE 608 144 608 112
WIRE 896 144 896 112
WIRE 1280 144 1280 112
WIRE 224 272 224 224
WIRE 608 272 608 224
WIRE 896 272 896 224
WIRE 1280 272 1280 224
WIRE 224 368 224 336
WIRE 608 368 608 336
WIRE 896 368 896 336
WIRE 1280 368 1280 336
FLAG 224 368 0
FLAG 608 368 0
FLAG 896 368 0
FLAG 1280 368 0
FLAG -416 208 0
FLAG 1440 112 Sortie
SYMBOL res 112 96 R90
WINDOW 0 0 56 VBottom 2
WINDOW 3 32 56 VTop 2
SYMATTR InstName R1
SYMATTR Value {{R1v}}
SYMBOL ind 208 128 R0
SYMATTR InstName L1
SYMATTR Value 0.1
SYMBOL cap 208 272 R0
SYMATTR InstName C1
SYMATTR Value {{C1v}}
SYMBOL res 496 96 R90
WINDOW 0 0 56 VBottom 2
WINDOW 3 32 56 VTop 2
SYMATTR InstName R2
SYMATTR Value {{R2v}}
SYMBOL ind 592 128 R0
SYMATTR InstName L2
SYMATTR Value 0.1
SYMBOL cap 592 272 R0
SYMATTR InstName C2
SYMATTR Value {{C2v}}
SYMBOL res 784 96 R90
WINDOW 0 0 56 VBottom 2
WINDOW 3 32 56 VTop 2
SYMATTR InstName R3
SYMATTR Value {{R3v}}
SYMBOL ind 880 128 R0
SYMATTR InstName L3
SYMATTR Value 0.1
SYMBOL cap 880 272 R0
SYMATTR InstName C3
SYMATTR Value {{C3v}}
SYMBOL res 1168 96 R90
WINDOW 0 0 56 VBottom 2
WINDOW 3 32 56 VTop 2
SYMATTR InstName R4
SYMATTR Value {{R4v}}
SYMBOL ind 1264 128 R0
SYMATTR InstName L4
SYMATTR Value 0.1
SYMBOL cap 1264 272 R0
SYMATTR InstName C4
SYMATTR Value {{C4v}}
SYMBOL voltage -416 112 R0
WINDOW 123 24 124 Left 2
WINDOW 39 0 0 Left 2
WINDOW 3 24 44 Left 2
SYMATTR Value wavefile = .\vuvuzela.wav
SYMATTR InstName V2
TEXT -192 -32 Left 2 !.wave .\\sons\\vuvuzela_update9.wav 16 44100 V(sortie)
TEXT -184 -80 Left 2 !.tran 0 10s 0 1ms
TEXT -184 -128 Left 2 !;ac dec 50 100 10k
